10
Properties=species:S:1:pos:R:3:Mulliken_Charges:R:1:Loewdin_Charges:R:1 dipole_b3lyp="-0.890762807962831 0.74454098918255 -1.761e-12" name=MuMLShowcase0006 dipole_vector="_JSON [-0.31434, 0.31555, -0.0]" pbc="F F F"
C        0.00206954       0.55490442       0.00000000       0.25577800      -0.50390100
O        1.17906485       0.84569206       0.00000000      -0.32669000       0.08552700
O       -0.99421921       1.48564968       0.00000000      -0.36802900       0.07873800
C       -0.56417983      -0.86200577       0.00000000      -0.15237900      -0.32448500
N        0.40865652      -1.93630805       0.00000000      -0.48405700      -0.15451700
H       -0.55393662       2.35797420       0.00000000       0.33205200       0.19995100
H       -1.22691444      -0.95399172       0.87449000       0.14647500       0.15199300
H       -1.22691444      -0.95399172      -0.87449000       0.14647700       0.15199300
H        1.02053322      -1.85198020       0.81249227       0.22518800       0.15735100
H        1.02053322      -1.85198020      -0.81249227       0.22518400       0.15735100
38
Properties=species:S:1:pos:R:3:Mulliken_Charges:R:1:Loewdin_Charges:R:1 dipole_b3lyp="-9.546908896599847 7.633286944322828 -8.941598523580216" name=MuMLGlycineN4alpha dipole_vector="_JSON [-3.7789, 3.01545, -3.55777]" pbc="F F F"
N       -2.07532641       3.34119387      -3.23868391      -0.56149700      -0.16343900
C       -1.19914719       2.16547436      -3.22598966      -0.13959600      -0.29111000
C       -0.86309105       1.67106779      -1.81618839       0.31654200      -0.44488500
O       -0.13514546       0.68284046      -1.64376375      -0.49059200       0.01466000
H       -1.62987716       1.31029587      -3.76793811       0.14928200       0.14779700
H       -0.23288198       2.36777336      -3.71069933       0.15461200       0.15281300
H       -2.96471476       3.14718947      -3.69263267       0.24353300       0.15915600
H       -1.64976034       4.12553113      -3.72675579       0.24987800       0.16103600
N       -1.42628344       2.38245221      -0.81475190      -0.29057100       0.12486100
C       -1.06489563       2.18442950       0.57870686      -0.11325800      -0.23463200
C       -1.37097563       0.79153052       1.14527193       0.22548400      -0.45662200
O       -0.68873510       0.32201321       2.05551538      -0.41141900       0.06920000
H        0.01017278       2.34768919       0.73929276       0.18515100       0.15949600
H       -1.60350192       2.92513189       1.18492555       0.14720100       0.15707400
H       -1.94692906       3.20373243      -1.13270278       0.26243100       0.19426900
N       -2.42703747       0.12885788       0.60447733      -0.27462500       0.12646400
C       -2.76196298      -1.22160325       1.02544860      -0.11158500      -0.23652900
C       -1.73094180      -2.31794305       0.68973958       0.23372200      -0.45109200
O       -1.80009604      -3.39532121       1.26904085      -0.37573800       0.06787600
H       -2.87538299      -1.25797017       2.11619668       0.15501400       0.16171500
H       -3.72434906      -1.50118079       0.57868141       0.14161500       0.14987500
H       -2.92648835       0.56127627      -0.16428851       0.23334100       0.18706600
N       -0.80596104      -2.00688683      -0.26257189      -0.25137200       0.12413800
C        0.35167942      -2.84925468      -0.48995453      -0.10263600      -0.23453700
C        1.69793181      -2.30773773       0.02258137       0.27910400      -0.43649200
O        2.58954472      -3.08152827       0.35050102      -0.37414400       0.06984800
H        0.17628136      -3.80252851       0.02042702       0.16546000       0.16558000
H        0.47201584      -3.06004646      -1.56463066       0.12883700       0.14852900
H       -0.82475218      -1.07975946      -0.68321035       0.21714400       0.17827300
N        1.83776453      -0.94064436       0.05192119      -0.34624800       0.09919300
C        3.12847324      -0.34642275       0.33532921      -0.13733100      -0.25491000
C        3.11042210       0.93003806       1.17423335       0.25933400      -0.50923400
O        4.04838924       1.69619441       1.16203088      -0.32266200       0.09761600
H        3.72094935      -1.10188722       0.87339389       0.17669400       0.17011300
H        3.68610905      -0.10463517      -0.58192786       0.13623900       0.15101300
H        1.16063906      -0.36905489      -0.45405263       0.24157700       0.18223900
O        2.02700245       1.18252620       1.94159665      -0.34829700       0.10300700
H        1.31774461       0.50236341       1.86874792       0.34937600       0.19057400
59
Properties=species:S:1:pos:R:3:Mulliken_Charges:R:1:Loewdin_Charges:R:1 dipole_b3lyp="-17.574319189852226 17.53195190126111 -15.238093113850425" name=MuMLGlycineN7alpha dipole_vector="_JSON [-6.91839, 6.90695, -6.00723]" pbc="F F F"
N       -3.59950719       5.51573556      -4.15740986      -0.55345900      -0.16244700
C       -3.07412524       4.15931835      -4.33251601      -0.15330600      -0.29239100
C       -2.56663021       3.53929228      -3.02876991       0.31149500      -0.44355600
O       -1.97646541       2.44912606      -3.02172800      -0.49032900       0.01253400
H       -3.85971923       3.48876517      -4.71027123       0.14930800       0.15286600
H       -2.24544237       4.08558755      -5.05390860       0.16293000       0.14836400
H       -4.45897505       5.65771425      -4.68265763       0.24808400       0.16120400
H       -2.93414174       6.21914131      -4.47269490       0.24813200       0.16171000
N       -2.83932881       4.25535591      -1.91450401      -0.28201000       0.12614700
C       -2.30459418       3.89736276      -0.61360725      -0.11814200      -0.23563600
C       -2.79169684       2.55847690      -0.03967929       0.23764000      -0.45410400
O       -2.09145759       1.93345133       0.75552580      -0.41599100       0.05749200
H       -1.20878734       3.82414982      -0.64734701       0.15449600       0.15725400
H       -2.56098086       4.69117651       0.10038535       0.16768600       0.15857400
H       -3.29140849       5.15512023      -2.09566653       0.26134400       0.19493400
N       -4.01619556       2.13391087      -0.44724969      -0.27908200       0.12811600
C       -4.54787460       0.84451477      -0.03857178      -0.11789400      -0.23494500
C       -3.86444399      -0.39531510      -0.64990350       0.21974500      -0.45235900
O       -4.07042362      -1.49692239      -0.15796941      -0.36872100       0.07469800
H       -4.44813394       0.72851199       1.04774981       0.16100500       0.16343400
H       -5.61676820       0.80708705      -0.28255125       0.15937800       0.15324300
H       -4.52126625       2.69899355      -1.12085941       0.24116100       0.18894300
N       -3.06892837      -0.16569145      -1.73562807      -0.25556800       0.12256700
C       -2.17226097      -1.18753569      -2.24516869      -0.09528400      -0.23126000
C       -0.71228804      -1.01205449      -1.79171471       0.26627500      -0.43678500
O       -0.05699141      -1.95775101      -1.34857736      -0.40629300       0.05413100
H       -2.51347617      -2.15698002      -1.86787565       0.16227700       0.16391300
H       -2.20451532      -1.20593209      -3.34541395       0.14116800       0.14818800
H       -2.92755778       0.79331621      -2.04674984       0.21147600       0.17823200
N       -0.19153364       0.24060902      -1.91150075      -0.30484800       0.12085700
C        1.19595911       0.49759064      -1.56861497      -0.06765900      -0.23724200
C        1.56632877       0.26058108      -0.09744463       0.21739700      -0.45439000
O        2.72116656      -0.05105370       0.20475432      -0.42322400       0.04648500
H        1.86948777      -0.15193903      -2.14392239       0.13882900       0.15798100
H        1.42963204       1.53879965      -1.82865900       0.13507900       0.14986700
H       -0.74858796       0.99748313      -2.30599774       0.24461900       0.18497600
N        0.56944233       0.39083579       0.81169007      -0.25502000       0.13529500
C        0.80092404       0.10083579       2.21346168      -0.05075400      -0.23344600
C        1.21347808      -1.34607076       2.52063659       0.17286400      -0.45537900
O        1.77033194      -1.60345568       3.59339950      -0.43697400       0.04171400
H        1.60657607       0.72669137       2.62156784       0.13999600       0.15796200
H       -0.11713353       0.32902871       2.76954926       0.15380100       0.15618600
H       -0.34774599       0.73430416       0.53061861       0.24208800       0.18980700
N        0.96365726      -2.27935793       1.57182750      -0.22188000       0.14030900
C        1.44555717      -3.63947954       1.72503614      -0.07399800      -0.23388200
C        2.97343583      -3.80639826       1.79554315       0.21444300      -0.45345100
O        3.45029113      -4.87131082       2.17589145      -0.38764300       0.05773300
H        1.06238671      -4.08308848       2.65344877       0.13516300       0.15834200
H        1.06848796      -4.23634796       0.88551909       0.15262300       0.15493000
H        0.55758942      -2.01113824       0.67466167       0.24006200       0.19109800
N        3.71888042      -2.71942774       1.43917624      -0.30109200       0.12079500
C        5.14598114      -2.68047210       1.65168382      -0.09443800      -0.25600000
C        5.61942488      -1.89355282       2.88564582       0.23831100      -0.50432600
O        6.79469511      -1.64413114       3.04359508      -0.33152200       0.08891700
H        5.49791120      -3.71392454       1.77936401       0.16017800       0.16567600
H        5.66177195      -2.25160576       0.78342102       0.13367600       0.15153700
H        3.26452259      -1.88279679       1.06990214       0.24795700       0.18911600
O        4.69524821      -1.50915087       3.78623113      -0.32797800       0.11289600
H        3.77665982      -1.75888409       3.52849824       0.34242200       0.19258000
80
Properties=species:S:1:pos:R:3:Mulliken_Charges:R:1:Loewdin_Charges:R:1 dipole_b3lyp="-30.366011267578447 25.388097731299464 -18.567142459364373" name=MuMLGlycineN10alpha dipole_vector="_JSON [-11.94092, 9.9556, -7.29341]" pbc="F F F"
N       -6.50729119       5.56300502      -6.45273360      -0.55192600      -0.16348600
C       -5.61722222       4.40893038      -6.30035340      -0.16639100      -0.29369800
C       -4.78773914       4.45670958      -5.01423840       0.29477400      -0.44694900
O       -3.87337288       3.65146830      -4.80382836      -0.45115700       0.03280600
H       -6.20377334       3.47949988      -6.25993585       0.14746200       0.15191600
H       -4.90028027       4.27570493      -7.12533808       0.16268600       0.14807400
H       -7.41633667       5.29139654      -6.81991168       0.24954200       0.16147300
H       -6.11856378       6.25229192      -7.09399797       0.25109000       0.16190800
N       -5.16376802       5.42026891      -4.13455274      -0.30138500       0.11714600
C       -4.36467546       5.75778056      -2.97089058      -0.08083700      -0.23244000
C       -4.17932992       4.63006284      -1.95126100       0.23701000      -0.44622200
O       -3.19514885       4.61178399      -1.20953694      -0.42365900       0.04998000
H       -3.34777632       6.05849326      -3.26111263       0.14987400       0.15926700
H       -4.83025316       6.61159024      -2.46082792       0.15725500       0.15835600
H       -5.89463401       6.04267906      -4.48910568       0.26222400       0.19416100
N       -5.14163469       3.67178911      -1.92197157      -0.26785500       0.13250300
C       -4.99145927       2.48737454      -1.09859887      -0.09715500      -0.23271800
C       -3.75575662       1.63016112      -1.41189404       0.22772400      -0.44885100
O       -3.32620666       0.84738204      -0.55270885      -0.46021800       0.02605900
H       -4.90568332       2.76095729      -0.03882392       0.15576500       0.16079700
H       -5.88815067       1.86380680      -1.20646287       0.16326900       0.15662600
H       -5.89055511       3.72439415      -2.60363235       0.24605800       0.19238800
N       -3.17864883       1.79473405      -2.62150142      -0.22028700       0.14352100
C       -1.92909570       1.12813178      -2.93320505      -0.13458000      -0.23121500
C       -0.76129006       1.47458459      -1.99843976       0.25123600      -0.44461100
O        0.17126715       0.67700114      -1.86459493      -0.44211300       0.04094200
H       -2.03863536       0.03689443      -2.88646163       0.15504100       0.15664000
H       -1.64683289       1.39212797      -3.96066928       0.16859900       0.15994800
H       -3.53705231       2.48319853      -3.29203583       0.24619100       0.19090500
N       -0.80745993       2.66835066      -1.35700085      -0.25462900       0.13680300
C        0.21323625       3.00226050      -0.37963042      -0.11397700      -0.23188500
C        0.19174046       2.13367657       0.89080939       0.25532500      -0.44148300
O        1.23459832       1.89379730       1.50132906      -0.42798400       0.04786900
H        1.21383356       2.88297240      -0.81160654       0.14913200       0.15764300
H        0.08522298       4.05347443      -0.08990335       0.15593100       0.15622000
H       -1.61561946       3.28471831      -1.45771429       0.25548000       0.19060100
N       -1.02941164       1.69791638       1.29841083      -0.26636800       0.13092900
C       -1.15173830       0.77362911       2.41244367      -0.09742500      -0.23407500
C       -0.72065467      -0.66711591       2.08508345       0.25193900      -0.44353000
O       -0.06891820      -1.33760349       2.88461096      -0.40126900       0.06033200
H       -0.51457427       1.10430432       3.23938907       0.14870500       0.15958600
H       -2.19608530       0.77244264       2.75267228       0.14678400       0.15089000
H       -1.82599467       1.79896461       0.67218201       0.24480800       0.18591100
N       -1.09860910      -1.13599444       0.86545333      -0.28367600       0.12812800
C       -0.64565628      -2.44098847       0.41720038      -0.09673500      -0.23397700
C        0.88388744      -2.54886049       0.27543746       0.26408700      -0.44283900
O        1.48271116      -3.54803844       0.67915536      -0.43215200       0.04786700
H       -0.93351853      -3.22135873       1.13250058       0.14267000       0.15586400
H       -1.12005753      -2.65955821      -0.54873812       0.13456100       0.14811100
H       -1.66762554      -0.55767252       0.25206369       0.23975000       0.18620500
N        1.51034133      -1.49834617      -0.30858714      -0.24891900       0.13387900
C        2.95681597      -1.49543843      -0.43477535      -0.12667700      -0.23568000
C        3.71081534      -1.32147217       0.89621909       0.25425900      -0.44859200
O        4.72640789      -1.97959053       1.14124791      -0.43497200       0.05562000
H        3.31126902      -2.44180767      -0.86224495       0.15454600       0.15684200
H        3.23970746      -0.68013343      -1.11427643       0.14621800       0.15192900
H        0.97389571      -0.72916210      -0.71135107       0.24560600       0.18763400
N        3.20942648      -0.41306410       1.76627937      -0.25993700       0.13588600
C        3.85748140      -0.18632809       3.04627763      -0.08205400      -0.23517100
C        3.88389942      -1.39693814       3.99708752       0.25050600      -0.44751200
O        4.79487934      -1.51434213       4.81000592      -0.38443600       0.06192200
H        4.91041745       0.09226828       2.90906443       0.12831000       0.15470900
H        3.34204235       0.64666864       3.54199948       0.13831400       0.15033300
H        2.41609571       0.17595492       1.51602455       0.24467900       0.18766000
N        2.85122245      -2.28090624       3.87657043      -0.29437500       0.12475600
C        2.83465702      -3.51031911       4.64000997      -0.08170000      -0.24018400
C        3.38770267      -4.76834091       3.94323307       0.24332800      -0.43893100
O        3.73140242      -5.73327354       4.62061495      -0.39435400       0.05144100
H        3.44191331      -3.37186948       5.54229140       0.15117800       0.16093400
H        1.80552199      -3.73846757       4.95313419       0.12449900       0.14873800
H        2.04910991      -2.03808888       3.29936728       0.24924600       0.18661900
N        3.43789769      -4.73833281       2.57585443      -0.30232600       0.11239400
C        3.75930352      -5.93240023       1.82509356      -0.09064300      -0.25606500
C        4.78548198      -5.81290819       0.69483761       0.24472200      -0.50918400
O        5.06785724      -6.79163380       0.03435093      -0.34251100       0.08068900
H        4.14611173      -6.67254601       2.53862979       0.16554700       0.16680700
H        2.85787774      -6.36870734       1.36669946       0.12273900       0.15155900
H        2.91254264      -4.01389914       2.08786661       0.22570600       0.18230000
O        5.35820157      -4.62409141       0.43713825      -0.33733700       0.10942900
H        5.02013924      -3.87349776       0.98176799       0.34764800       0.18884300
101
Properties=species:S:1:pos:R:3:Mulliken_Charges:R:1:Loewdin_Charges:R:1 dipole_b3lyp="-35.92300363598987 35.5139482774976 -26.327662640046103" name=MuMLGlycineN13alpha dipole_vector="_JSON [-14.10027, 13.93527, -10.34661]" pbc="F F F"
N       -8.66925842       7.98423948      -6.86209320      -0.57535700      -0.16604200
C       -8.16133809       6.61159059      -6.79201766      -0.13679300      -0.29205200
C       -7.00219671       6.44995038      -5.80460451       0.27871100      -0.44754800
O       -6.35290435       5.40014825      -5.73528546      -0.45029900       0.03226800
H       -8.95569096       5.92917346      -6.45612302       0.14147800       0.15192200
H       -7.80634982       6.20868209      -7.75337396       0.15694600       0.14756400
H       -9.68461693       8.00765749      -6.92077238       0.25557500       0.16196900
H       -8.31004871       8.47488767      -7.67916158       0.25256900       0.16234100
N       -6.78248906       7.52876880      -5.00973948      -0.29141800       0.11780200
C       -5.60408081       7.64251265      -4.17047396      -0.10117300      -0.23396800
C       -5.46566684       6.57077953      -3.08520286       0.23724800      -0.44659500
O       -4.35475768       6.26586473      -2.64544733      -0.42803300       0.04843800
H       -4.68323519       7.57438566      -4.76721270       0.15657900       0.15933200
H       -5.61258321       8.62716739      -3.68427520       0.15865100       0.15850800
H       -7.36580653       8.33796683      -5.23793579       0.26275900       0.19438500
N       -6.61427400       5.98947880      -2.65450998      -0.25404600       0.13442900
C       -6.58692090       4.87001848      -1.73227820      -0.06798800      -0.23109500
C       -5.81548146       3.63772961      -2.22848916       0.20739800      -0.44912900
O       -5.39463923       2.81374598      -1.40801409      -0.44265600       0.03658100
H       -6.10882710       5.15855724      -0.78715873       0.14963500       0.16081900
H       -7.61843209       4.57274325      -1.50423095       0.15280100       0.15570000
H       -7.48273884       6.25477531      -3.10581846       0.24113100       0.19218400
N       -5.61202700       3.52905790      -3.56196016      -0.23402900       0.13998200
C       -4.77301716       2.47023755      -4.08947943      -0.08152100      -0.23102300
C       -3.32806639       2.47673134      -3.57324156       0.21054600      -0.44480900
O       -2.65370991       1.44085747      -3.60906525      -0.44253400       0.03504700
H       -5.17537599       1.48118001      -3.83363435       0.14503800       0.15884400
H       -4.75772722       2.55448787      -5.18380248       0.16657600       0.15997300
H       -5.93376593       4.25610453      -4.20949845       0.25152800       0.19058700
N       -2.85801764       3.64378202      -3.06862722      -0.24448100       0.13988200
C       -1.56062966       3.69454025      -2.42574411      -0.09171500      -0.23212600
C       -1.40681621       2.76552599      -1.21455714       0.22132600      -0.44386200
O       -0.27477024       2.41632170      -0.84621037      -0.46946100       0.01981600
H       -0.76109057       3.41178223      -3.12341415       0.14954900       0.15778800
H       -1.37348614       4.72696119      -2.10298517       0.16514700       0.15947000
H       -3.45734581       4.47042049      -3.01733138       0.25526000       0.19312600
N       -2.53942224       2.34596813      -0.60931807      -0.21618000       0.14558200
C       -2.48430380       1.34663286       0.43882141      -0.07013700      -0.23012000
C       -1.84295459       0.01387603       0.02618554       0.22550900      -0.44380200
O       -1.32239935      -0.70545772       0.88558727      -0.44627700       0.03528600
H       -1.90537552       1.70463090       1.30010592       0.14067600       0.15477300
H       -3.50884483       1.15216733       0.78178979       0.15310100       0.15881200
H       -3.45839192       2.61909556      -0.96913162       0.24292500       0.19329000
N       -1.88819438      -0.32128472      -1.28587043      -0.24604900       0.13887000
C       -1.20081982      -1.51256313      -1.74990367      -0.09839600      -0.23168600
C        0.33429793      -1.43624372      -1.67088126       0.25062800      -0.44040100
O        1.00490142      -2.45182308      -1.47492699      -0.42642000       0.04505600
H       -1.49371829      -2.38363308      -1.15208007       0.14852300       0.15702400
H       -1.49055120      -1.69530956      -2.79301551       0.14859700       0.15582400
H       -2.27684884       0.32266927      -1.97983539       0.25765700       0.19122500
N        0.88103209      -0.20762862      -1.86564073      -0.26505900       0.13268200
C        2.30639830       0.00436479      -1.68952881      -0.11071000      -0.23458800
C        2.76700039      -0.01701413      -0.22224139       0.26365600      -0.43994100
O        3.81308081      -0.57571975       0.11157268      -0.41973800       0.05202100
H        2.86579096      -0.78783320      -2.19851950       0.14830700       0.15908000
H        2.57463669       0.96919508      -2.14088614       0.15123100       0.15155000
H        0.27448741       0.61053339      -1.86268114       0.24109400       0.18691500
N        1.95064805       0.60512622       0.66740120      -0.26569500       0.13191700
C        2.24046821       0.53470002       2.08882526      -0.09140800      -0.23412600
C        2.16994941      -0.89179424       2.66703091       0.26548900      -0.44305000
O        3.02076493      -1.29117850       3.46529857      -0.42758600       0.04590300
H        3.25669474       0.89135002       2.29725753       0.13761500       0.15524000
H        1.52762083       1.17949365       2.61987546       0.13690600       0.14894100
H        1.12011727       1.09475173       0.33996795       0.23702400       0.18751700
N        1.13080436      -1.65601939       2.25057238      -0.25523500       0.13416500
C        1.00003316      -3.02392508       2.71773528      -0.10159500      -0.23602600
C        2.06088487      -3.99287228       2.16370578       0.25651900      -0.44572800
O        2.56749018      -4.85112449       2.89130971      -0.44403300       0.04529000
H        1.09552432      -3.07105170       3.80968042       0.14707800       0.15480600
H        0.00148919      -3.38565303       2.43761488       0.13852800       0.15074900
H        0.39102682      -1.26043688       1.66790367       0.23625700       0.18723500
N        2.38371231      -3.85278049       0.85474973      -0.25203700       0.13435100
C        3.37978163      -4.71508221       0.24540035      -0.08842000      -0.23747700
C        4.83333439      -4.46331270       0.68915435       0.22343900      -0.45081900
O        5.63865788      -5.38908866       0.71651918      -0.38012500       0.06141000
H        3.17962809      -5.76651205       0.48652413       0.13258000       0.15572400
H        3.31646288      -4.58993128      -0.84370247       0.14909700       0.15182200
H        1.88574941      -3.19140797       0.25945911       0.23174000       0.18757700
N        5.14653576      -3.17788800       1.02222644      -0.28654000       0.12214900
C        6.47611030      -2.83695502       1.48310857      -0.09567800      -0.24068200
C        6.70955895      -2.90990333       3.00294712       0.26012500      -0.44316100
O        7.84939672      -3.02350338       3.44572916      -0.39843400       0.05074600
H        7.20383070      -3.52397633       1.03451694       0.15057100       0.15945400
H        6.71943252      -1.81541724       1.15829535       0.13236800       0.15010900
H        4.48471159      -2.42620650       0.83552571       0.23612600       0.18530500
N        5.59296334      -2.82557278       3.78770879      -0.30629500       0.11991600
C        5.68744588      -2.79188500       5.23003044      -0.05434400      -0.24203800
C        5.03800139      -3.95216495       5.99084146       0.21712800      -0.44317900
O        5.03975757      -3.96189336       7.21724763      -0.38471300       0.05853200
H        6.75415779      -2.78416644       5.49482910       0.16051800       0.16476300
H        5.23635014      -1.87145137       5.62843106       0.12808300       0.15185200
H        4.71298053      -2.52720980       3.36826884       0.23815300       0.18551400
N        4.49148531      -4.95960361       5.22879084      -0.37790900       0.10389500
C        3.68126448      -5.99380651       5.84585574      -0.06307500      -0.25503900
C        4.32460820      -7.38386776       5.88139711       0.24134800      -0.49951000
O        3.74555642      -8.35489152       6.31159796      -0.33158100       0.09278300
H        3.48084213      -5.70656822       6.88775067       0.14903000       0.16150800
H        2.72609072      -6.08475023       5.31305642       0.14868100       0.15386900
H        4.30727446      -4.76528737       4.24425330       0.27523100       0.19076800
O        5.58833317      -7.45574182       5.40482415      -0.33680800       0.10106700
H        5.83232803      -6.55245087       5.10537467       0.33398900       0.19799500
122
Properties=species:S:1:pos:R:3:Mulliken_Charges:R:1:Loewdin_Charges:R:1 dipole_b3lyp="-48.83062880489637 42.582018937937434 -37.69136858982792" name=MuMLGlycineN16alpha dipole_vector="_JSON [-19.1374, 16.69733, -14.79689]" pbc="F F F"
N       -9.20630899       8.61074829      -8.62178055      -0.55773600      -0.16191800
C       -8.17564912       7.57089024      -8.56395310      -0.15162200      -0.29256500
C       -7.56118611       7.41266652      -7.17050773       0.29704400      -0.44496700
O       -6.58230994       6.68237953      -6.97307088      -0.46097900       0.02929000
H       -8.60061903       6.59255331      -8.83176179       0.14670700       0.15181700
H       -7.33417057       7.73122028      -9.25561435       0.16146400       0.14910200
H      -10.01640395       8.31021298      -9.15861581       0.25096100       0.16195800
H       -8.85624745       9.46205515      -9.05731673       0.24912600       0.16219400
N       -8.19652465       8.10593281      -6.19176124      -0.30474200       0.11768900
C       -7.63778648       8.25338480      -4.86076996      -0.09327900      -0.23272400
C       -7.43674784       6.94657831      -4.08876372       0.23918100      -0.44526100
O       -6.57310476       6.86023112      -3.21274828      -0.43161300       0.04746200
H       -6.64737949       8.72954406      -4.89447114       0.15399900       0.15954900
H       -8.29889410       8.90402855      -4.27259171       0.16350300       0.15974400
H       -8.94788580       8.71056263      -6.53552879       0.26788000       0.19551900
N       -8.24679267       5.91028606      -4.42662761      -0.26826900       0.13368700
C       -8.04841020       4.59042422      -3.86036681      -0.08902100      -0.23182700
C       -6.66395402       3.97765995      -4.11692547       0.24167200      -0.44643000
O       -6.24923976       3.07814938      -3.37046438      -0.47009300       0.02190600
H       -8.16971775       4.61310017      -2.76935192       0.15704700       0.16055800
H       -8.81281944       3.91312056      -4.26228280       0.16475200       0.15759000
H       -8.89605493       6.04082253      -5.19469539       0.24718600       0.19351700
N       -5.94648583       4.47544355      -5.14587571      -0.23893600       0.14498500
C       -4.57726756       4.04731605      -5.35606924      -0.08886000      -0.22896800
C       -3.63921863       4.29034885      -4.16560986       0.24350000      -0.44175900
O       -2.64252247       3.57559734      -4.01517623      -0.45302800       0.03574000
H       -4.52414082       2.97142674      -5.56704830       0.14534900       0.15570700
H       -4.18232520       4.57989319      -6.23105264       0.15994700       0.16038700
H       -6.30197233       5.25153477      -5.71639484       0.25623500       0.19201700
N       -3.94920192       5.30443956      -3.32193663      -0.25624900       0.13866100
C       -3.15717333       5.51273499      -2.12299548      -0.09626900      -0.22937800
C       -3.27273358       4.38627529      -1.08143588       0.26613700      -0.43744000
O       -2.32011781       4.10311720      -0.35118661      -0.44301300       0.04182200
H       -2.09242214       5.59115316      -2.37225844       0.14489000       0.15745100
H       -3.47310342       6.45594438      -1.65827408       0.15709900       0.15730500
H       -4.80833180       5.84452861      -3.44554605       0.25661400       0.19179300
N       -4.48020661       3.76950760      -1.00055745      -0.27650700       0.13370800
C       -4.66660926       2.61836194      -0.13589095      -0.10103900      -0.23269500
C       -3.96853252       1.34327700      -0.63572963       0.27709700      -0.43532700
O       -3.37527447       0.59147901       0.14143654      -0.43548700       0.04602600
H       -4.25496366       2.82653520       0.85754663       0.14712600       0.15930600
H       -5.74359993       2.42796968      -0.03535868       0.15305900       0.15400500
H       -5.17050902       3.93242330      -1.73152054       0.24855800       0.18748800
N       -4.04103365       1.10651589      -1.96965963      -0.26940500       0.13582000
C       -3.31061699      -0.00583686      -2.55241579      -0.10930000      -0.23189200
C       -1.78098078       0.12140704      -2.42053515       0.26253700      -0.43947700
O       -1.09166630      -0.85247630      -2.10449025      -0.43486800       0.04100200
H       -3.57776673      -0.94830909      -2.05916956       0.14578700       0.15626900
H       -3.58057639      -0.07920637      -3.61416717       0.14330200       0.15056100
H       -4.57881922       1.73123392      -2.56731198       0.24722600       0.18934700
N       -1.25796361       1.34434132      -2.67373556      -0.25287300       0.13743100
C        0.16948331       1.57152088      -2.53772359      -0.11071800      -0.23274200
C        0.68167947       1.49913479      -1.08886491       0.26946600      -0.43783700
O        1.73547516       0.91363919      -0.82094741      -0.44144700       0.03911300
H        0.74001194       0.81754429      -3.09410729       0.14025700       0.15519100
H        0.39779009       2.56130707      -2.95516861       0.14969800       0.15271500
H       -1.84595469       2.10174214      -3.02727733       0.25294500       0.18878200
N       -0.07500468       2.11039505      -0.14636591      -0.26112700       0.13711800
C        0.31313744       2.04721769       1.25107671      -0.08839400      -0.23174000
C        0.23998031       0.63427528       1.85521483       0.27206700      -0.43854800
O        1.12529962       0.22443016       2.61253456      -0.44568700       0.03701000
H        1.35098899       2.37672524       1.38494086       0.13640400       0.15450700
H       -0.34430253       2.72080206       1.81668988       0.14740100       0.15345500
H       -0.89858909       2.65812457      -0.39960167       0.25417100       0.18970300
N       -0.83998900      -0.10962436       1.51791338      -0.25911400       0.13840900
C       -0.96623630      -1.47412328       1.99493742      -0.10516100      -0.23303100
C        0.05828494      -2.44845523       1.38788716       0.26464000      -0.43884400
O        0.60554908      -3.30729523       2.08706236      -0.44838700       0.03663900
H       -0.81929699      -1.52245597       3.08086686       0.14686300       0.15503500
H       -1.98108306      -1.82330767       1.76210061       0.14382600       0.15251200
H       -1.58840564       0.27794348       0.94150785       0.24794400       0.18888000
N        0.30807977      -2.31070631       0.06460059      -0.24618900       0.13823400
C        1.29769064      -3.14961594      -0.58459130      -0.10161300      -0.23455500
C        2.74092057      -2.88736797      -0.12111887       0.25553600      -0.43949000
O        3.51905037      -3.82613466       0.07711303      -0.44257400       0.03625200
H        1.10692014      -4.21045145      -0.38003643       0.13388200       0.15404900
H        1.22560148      -2.98175268      -1.66743773       0.15535400       0.15319400
H       -0.21079126      -1.64136052      -0.50598057       0.23847800       0.18891700
N        3.09494562      -1.59107237       0.04249772      -0.24772500       0.13873900
C        4.41377996      -1.24998837       0.54404961      -0.08713600      -0.23442500
C        4.64060817      -1.62637689       2.02011753       0.25444900      -0.44379500
O        5.70678151      -2.12405770       2.39070307      -0.42855100       0.04385700
H        5.19272080      -1.77542879      -0.02175900       0.13175100       0.15375200
H        4.55531276      -0.16826935       0.41820064       0.14627600       0.15148700
H        2.45092149      -0.83530808      -0.19728773       0.23815200       0.18914200
N        3.61087371      -1.37453193       2.86537528      -0.26161300       0.13463300
C        3.70912243      -1.74561299       4.26395847      -0.08738200      -0.23439100
C        3.79495739      -3.26267246       4.49843480       0.25723000      -0.44091500
O        4.57772849      -3.72914205       5.33178467      -0.43973000       0.03962600
H        4.61290978      -1.32336872       4.72131159       0.12585600       0.15289100
H        2.82959492      -1.34248568       4.78355995       0.14206200       0.15145900
H        2.76411180      -0.90073332       2.54736475       0.24988700       0.18823100
N        2.97387772      -4.03731098       3.74970751      -0.24836800       0.13670200
C        3.04689639      -5.48216932       3.85731120      -0.08552900      -0.23650200
C        4.33890336      -6.09105574       3.28236568       0.24618600      -0.44615800
O        4.93455664      -7.00044353       3.87170608      -0.44096700       0.04663500
H        3.00263878      -5.79755646       4.90725691       0.14102200       0.15398600
H        2.18386185      -5.90693666       3.32720639       0.13691600       0.15145500
H        2.28462912      -3.62335347       3.11969731       0.24603500       0.18935600
N        4.76928995      -5.58633281       2.10396540      -0.25433000       0.13820500
C        5.97969536      -6.09156554       1.48247479      -0.08152400      -0.23685500
C        7.27885693      -5.85776891       2.27448252       0.24193200      -0.44761600
O        8.21510603      -6.64361918       2.16070912      -0.39040800       0.05648200
H        5.92320746      -7.17882263       1.34089795       0.12793000       0.15384300
H        6.07286872      -5.61835248       0.49609715       0.13617800       0.15015500
H        4.23027140      -4.87766888       1.60352565       0.23721500       0.18889100
N        7.30725430      -4.74988675       3.06919000      -0.29316500       0.12538100
C        8.43318437      -4.49328746       3.94071515      -0.07301500      -0.24198200
C        8.31623913      -5.00919410       5.38759867       0.23208900      -0.43901700
O        9.33016994      -5.13505308       6.07053968      -0.39973900       0.04558100
H        9.32583481      -4.97145101       3.51976450       0.14783400       0.15915900
H        8.61732674      -3.41070874       3.99453911       0.12863600       0.14934100
H        6.57522542      -4.04679544       2.98019793       0.24598600       0.18784900
N        7.05270097      -5.27731032       5.83582137      -0.28944800       0.11617100
C        6.81152508      -5.59747101       7.22457249      -0.09621100      -0.25756800
C        6.03572565      -6.88032214       7.54460956       0.24264700      -0.50857800
O        5.91080885      -7.23273192       8.70047167      -0.34722400       0.07610600
H        7.78804450      -5.68274799       7.71877465       0.16303400       0.16506300
H        6.26266465      -4.78216213       7.72196799       0.12754800       0.15195400
H        6.26331538      -4.91974688       5.29874728       0.22798700       0.18378100
O        5.48246234      -7.59143520       6.54869093      -0.33761600       0.11033000
H        5.56237026      -7.18776218       5.65025445       0.34452000       0.18884300
