10
Properties=species:S:1:pos:R:3:Mulliken_Charges:R:1:Loewdin_Charges:R:1 dipole_b3lyp="-0.890762807962831 0.74454098918255 -1.761e-12" name=MuMLShowcase0006 dipole_vector="_JSON [-0.31434, 0.31555, -0.0]" pbc="F F F"
C        0.00206954       0.55490442       0.00000000       0.25577800      -0.50390100
O        1.17906485       0.84569206       0.00000000      -0.32669000       0.08552700
O       -0.99421921       1.48564968       0.00000000      -0.36802900       0.07873800
C       -0.56417983      -0.86200577       0.00000000      -0.15237900      -0.32448500
N        0.40865652      -1.93630805       0.00000000      -0.48405700      -0.15451700
H       -0.55393662       2.35797420       0.00000000       0.33205200       0.19995100
H       -1.22691444      -0.95399172       0.87449000       0.14647500       0.15199300
H       -1.22691444      -0.95399172      -0.87449000       0.14647700       0.15199300
H        1.02053322      -1.85198020       0.81249227       0.22518800       0.15735100
H        1.02053322      -1.85198020      -0.81249227       0.22518400       0.15735100
17
Properties=species:S:1:pos:R:3:Mulliken_Charges:R:1:Loewdin_Charges:R:1 dipole_b3lyp="-2.266270892163929 0.097170195099796 -1.809218800942937" name=MuMLGlycineN1beta dipole_vector="_JSON [-0.88875, 0.04041, -0.70689]" pbc="F F F"
C       -1.88744679      -0.27526051      -1.40741576       0.28798600      -0.49003000
C       -0.87771101      -0.81850577      -0.42323662      -0.10771800      -0.24426400
N        0.04242409       0.22616258      -0.04943193      -0.28222200       0.11528000
C        1.05745140       0.00846080       0.83519576       0.21458700      -0.45640800
C        1.94821783       1.23431128       1.11864089      -0.14521000      -0.32455800
N        3.02081487       1.01576178       2.07127804      -0.47586900      -0.15779700
O       -2.77030859      -1.22999951      -1.78596816      -0.35904100       0.10087300
O       -1.91614594       0.86805130      -1.81578370      -0.33870400       0.08753000
O        1.24521552      -1.08618039       1.36194924      -0.39001100       0.04940400
H       -0.35822292      -1.67788631      -0.87816614       0.15248700       0.15923200
H       -1.41110668      -1.22560090       0.45151788       0.15209100       0.15946000
H       -0.11059911       1.13487645      -0.48010118       0.24507500       0.19497900
H        1.30772540       2.05674026       1.47600470       0.13129000       0.14275700
H        2.37638490       1.57946475       0.16350736       0.13049400       0.14319200
H        2.62482106       0.69842905       2.95761799       0.22112100       0.15692300
H       -3.38474256      -0.80566970      -2.41619401       0.33841100       0.20592300
H        3.59991078       0.23716964       1.75220612       0.22523400       0.15750500
24
Properties=species:S:1:pos:R:3:Mulliken_Charges:R:1:Loewdin_Charges:R:1 dipole_b3lyp="-3.842210395125505 -2.397719195604377 -2.138020184523306" name=MuMLGlycineN2beta dipole_vector="_JSON [-1.50215, -0.9037, -0.84444]" pbc="F F F"
C       -3.32804608      -1.26668368      -2.14070294       0.28873500      -0.49102500
C       -2.24614202      -1.66771236      -1.16318825      -0.11431900      -0.23930200
N       -1.40464369      -0.52776251      -0.89301618      -0.27831500       0.12795900
C       -0.34492334      -0.60590249      -0.04853434       0.28847000      -0.43696900
C        0.44271169       0.69290007       0.12542506      -0.13852500      -0.24521700
N        1.52746979       0.45043306       1.04116982      -0.26584600       0.11717900
O       -4.14371129      -2.30773696      -2.42444966      -0.35607900       0.10475800
O       -3.45590375      -0.15646685      -2.61469738      -0.33615400       0.09109800
O       -0.03719255      -1.64494566       0.53707316      -0.41138100       0.04989300
H       -1.67116034      -2.50824444      -1.58420572       0.15709200       0.16054900
H       -2.71445910      -2.05609980      -0.24436808       0.15557900       0.16042600
H       -1.64877327       0.33569767      -1.37321933       0.25213800       0.19947000
H       -0.22330653       1.48924287       0.49842703       0.14204200       0.15039600
H        0.81784570       1.04002939      -0.85204078       0.14175700       0.15054200
C        2.41998355       1.41824035       1.38550915       0.20113700      -0.45915300
C        3.51441118       0.97151420       2.37575298      -0.13365700      -0.32370300
N        4.47585134       1.99559825       2.74335614      -0.47974100      -0.16007300
O        2.35683467       2.56404105       0.94034060      -0.39786600       0.04176700
H        1.57936123      -0.50118900       1.40294807       0.24538400       0.19584900
H        4.04921249       0.11207189       1.94040125       0.12920200       0.14235400
H        3.02480709       0.59082781       3.28659728       0.12502500       0.14216900
H       -4.81166433      -1.97640948      -3.05616726       0.34091300       0.20777300
H        4.92190898       2.35484664       1.89762426       0.22236900       0.15665900
H        3.97729990       2.79807558       3.13173148       0.22203800       0.15660000
31
Properties=species:S:1:pos:R:3:Mulliken_Charges:R:1:Loewdin_Charges:R:1 dipole_b3lyp="-5.970345299618111 -1.48978784846504 -4.153984402874994" name=MuMLGlycineN3beta dipole_vector="_JSON [-2.32358, -0.57443, -1.61147]" pbc="F F F"
C       -4.80867959      -1.52675937      -3.18391093       0.28687500      -0.49145400
C       -3.75746555      -2.00218069      -2.20564367      -0.11235900      -0.23748200
N       -2.85498766      -0.91378131      -1.91679097      -0.27579400       0.13002600
C       -1.81717773      -1.05639324      -1.05636425       0.28391000      -0.43776800
C       -0.95749651       0.19428541      -0.85925642      -0.14512900      -0.24033000
N        0.08607840      -0.12667531       0.08113028      -0.25540300       0.13026300
O       -5.68067397      -2.51474784      -3.48522400      -0.35496100       0.10671600
O       -4.86759760      -0.40465366      -3.64341171      -0.33487600       0.09144700
O       -1.57488878      -2.11257551      -0.47092554      -0.40830000       0.05246600
H       -3.22801601      -2.86793665      -2.63481979       0.15741800       0.16081300
H       -4.25166704      -2.37395348      -1.29380409       0.15733600       0.16102700
H       -3.04690758      -0.03398883      -2.39158283       0.25266100       0.19999400
H       -1.57895760       1.02829056      -0.49359818       0.14724600       0.15173000
H       -0.53680097       0.52009610      -1.82496190       0.14603400       0.15165200
C        1.01025495       0.77958039       0.47771837       0.28075000      -0.43968800
C        2.03824089       0.25818676       1.48384167      -0.14157000      -0.24521600
N        2.94403238       1.33056594       1.80731378      -0.26828100       0.11735300
O        1.03051690       1.94152234       0.06410423      -0.42104600       0.04178500
H        0.06850923      -1.08658551       0.42683518       0.25056400       0.20033600
H        2.57778938      -0.60408172       1.05762545       0.14294000       0.15005000
H        1.52627735      -0.11571525       2.38620226       0.14090100       0.15004400
C        3.96944247       1.18103282       2.68787613       0.20482500      -0.45961500
C        4.82908635       2.44306580       2.90621566      -0.14317700      -0.32414600
N        5.92498327       2.29288707       3.84748111      -0.47717600      -0.16094600
O        4.19608534       0.11870032       3.26756545      -0.39988800       0.04010400
H        2.75149205       2.20983426       1.32809835       0.24471900       0.19575700
H        4.17085907       3.25949922       3.24426517       0.12837300       0.14192000
H        5.23048891       2.76420880       1.93160296       0.12775900       0.14197100
H        5.55199356       1.98252450       4.74635923       0.22059000       0.15624300
H        6.52473598       1.52506157       3.54056492       0.22314700       0.15651000
H       -6.32530782      -2.13910067      -4.11645254       0.34191100       0.20843700
38
Properties=species:S:1:pos:R:3:Mulliken_Charges:R:1:Loewdin_Charges:R:1 dipole_b3lyp="-7.616614977419394 -3.862355059939468 -5.007650037779493" name=MuMLGlycineN4beta dipole_vector="_JSON [-2.96507, -1.4687, -1.94991]" pbc="F F F"
C       -6.17778191      -2.23002345      -4.13514678       0.28700800      -0.49165500
C       -5.11008585      -2.71333571      -3.17821089      -0.11278700      -0.23669500
N       -4.20919891      -1.62276534      -2.89073667      -0.27391300       0.13097200
C       -3.16182988      -1.76374053      -2.04299412       0.28373100      -0.43828300
C       -2.30850920      -0.50771635      -1.84864728      -0.14618900      -0.23861000
N       -1.25839882      -0.82521026      -0.91313893      -0.25524500       0.13227000
O       -7.05048554      -3.21681386      -4.43619182      -0.35453500       0.10767500
O       -6.24596762      -1.10206149      -4.57870812      -0.33467700       0.09181900
O       -2.90370214      -2.82082658      -1.46575944      -0.40857800       0.05216000
H       -4.58266422      -3.57098713      -3.62571675       0.15754200       0.16077800
H       -5.58821571      -3.09772741      -2.26311123       0.15796200       0.16112500
H       -4.41409154      -0.74010385      -3.35511699       0.25316800       0.20042200
H       -2.93085332       0.32278597      -1.47741710       0.14972100       0.15232900
H       -1.89369296      -0.17891437      -2.81575158       0.14732100       0.15207100
C       -0.35258428       0.09180770      -0.50501570       0.28109800      -0.44026100
C        0.68654384      -0.41839468       0.49789900      -0.14948000      -0.23998100
N        1.55249821       0.68314978       0.83654085      -0.26082700       0.13032600
O       -0.34927300       1.25898794      -0.90403503      -0.42000500       0.04399700
H       -1.26661691      -1.78822869      -0.57465777       0.25166800       0.20086800
H        1.25589048      -1.25414974       0.05853405       0.14630100       0.15096000
H        0.18725242      -0.81909636       1.39497718       0.14632600       0.15146900
C        2.53948090       0.57934686       1.75579105       0.27762000      -0.44048700
C        3.34197507       1.86130651       1.99203032      -0.14019900      -0.24484100
N        4.32897912       1.59838505       3.00802378      -0.26156000       0.11792000
O        2.78616665      -0.46602592       2.36318310      -0.42201500       0.04032500
H        1.33570805       1.55526332       0.35221645       0.25105600       0.20034000
H        2.66872367       2.67993635       2.29577352       0.14035500       0.14967600
H        3.81515833       2.18590946       1.05003864       0.14135600       0.14961900
C        5.17840404       2.55388710       3.46981124       0.20428400      -0.46061800
C        6.15583670       2.08067216       4.56519411      -0.13779800      -0.32370300
N        7.06591726       3.09625061       5.06593722      -0.48220800      -0.16179000
O        5.17012491       3.71056651       3.04728908      -0.40092100       0.03898900
H        4.32916745       0.64165634       3.36149735       0.24416700       0.19577100
H        6.74013565       1.23432995       4.16966465       0.13027400       0.14211000
H        5.56911549       1.67475713       5.40492452       0.12543200       0.14160200
H        7.59681225       3.48173540       4.28281824       0.22113900       0.15627500
H        6.52146568       3.88595571       5.41758438       0.22099500       0.15617700
H       -7.70547572      -2.83526084      -5.05312899       0.34241300       0.20888000
45
Properties=species:S:1:pos:R:3:Mulliken_Charges:R:1:Loewdin_Charges:R:1 dipole_b3lyp="-9.452210757065597 -3.218348798818902 -7.468447736276691" name=MuMLGlycineN5beta dipole_vector="_JSON [-3.67472, -1.24323, -2.89024]" pbc="F F F"
C       -7.43644653      -2.71833298      -5.36829540       0.28745300      -0.49188200
C       -6.39200896      -3.19379362      -4.38226398      -0.11340400      -0.23647500
N       -5.49274752      -2.10350395      -4.08819755      -0.27455400       0.13158900
C       -4.46329210      -2.24138501      -3.21895731       0.28374700      -0.43816800
C       -3.60567463      -0.98894107      -3.01707791      -0.14711600      -0.23804200
N       -2.57737885      -1.31169049      -2.05938116      -0.25211800       0.13331200
O       -8.30555656      -3.70613559      -5.67549217      -0.35413400       0.10803300
O       -7.49069384      -1.59577563      -5.82717240      -0.33427700       0.09207200
O       -4.22193000      -3.29444707      -2.62701525      -0.40892400       0.05222700
H       -5.85836184      -4.05885579      -4.80734843       0.15835700       0.16098700
H       -6.89183855      -3.56486253      -3.47334126       0.15828300       0.16125100
H       -5.68378820      -1.22488481      -4.56600190       0.25335600       0.20051300
H       -4.22890650      -0.15206996      -2.66226513       0.14993100       0.15241800
H       -3.16960665      -0.66944590      -3.97784384       0.14807200       0.15209500
C       -1.67161859      -0.40614989      -1.62892903       0.28139100      -0.44102400
C       -0.66238135      -0.93478335      -0.60496082      -0.15268100      -0.23859800
N        0.20490979       0.15620304      -0.23515594      -0.25875300       0.13267400
O       -1.64250692       0.76278783      -2.02193326      -0.42045800       0.04357200
H       -2.60425652      -2.27432663      -1.71960285       0.25191900       0.20141000
H       -0.08894771      -1.77089035      -1.03775961       0.14870000       0.15160500
H       -1.18639208      -1.33830470       0.27629032       0.14837000       0.15197500
C        1.16718605       0.03238548       0.70494380       0.27518600      -0.44121300
C        1.98212066       1.30131224       0.97548471      -0.14496400      -0.23977200
N        2.93290321       1.00111574       2.01656783      -0.25585400       0.13103400
O        1.39003875      -1.01975368       1.30993283      -0.42050100       0.04249900
H        0.00915802       1.03357133      -0.71974922       0.25160400       0.20089000
H        1.31691623       2.12763353       1.27374103       0.14490800       0.15104700
H        2.48959954       1.62673543       0.05238171       0.14505000       0.15070000
C        3.76406960       1.93155864       2.53789868       0.29147500      -0.44078300
C        4.69037710       1.42446962       3.64639692      -0.15105300      -0.24507400
N        5.49257489       2.52900700       4.10708769      -0.26854300       0.11775400
O        3.78618378       3.10510950       2.15635122      -0.42651600       0.03869800
H        2.90373849       0.03548904       2.34724230       0.25091700       0.20041000
H        5.32110392       0.60520658       3.26248019       0.14420900       0.14971200
H        4.09652156       0.99520804       4.47022150       0.14192800       0.14970000
C        6.38846487       2.41205848       5.12235528       0.20519700      -0.46083900
C        7.14550262       3.70923213       5.47462414      -0.14670400      -0.32460500
N        8.08649454       3.59863608       6.57606899      -0.47468500      -0.16106900
O        6.58580477       1.35123898       5.71605032      -0.40065700       0.03862900
H        5.31809323       3.40936005       3.62233839       0.24461900       0.19588200
H        6.40810462       4.49452948       5.70579137       0.12697300       0.14146600
H        7.68051341       4.05416970       4.57515114       0.13168900       0.14229800
H        7.58869390       3.27549208       7.40750818       0.21882700       0.15570900
H        8.75055119       2.85002352       6.37015690       0.22091800       0.15632600
H       -8.94670157      -3.33212972      -6.31140551       0.34281500       0.20905600
52
Properties=species:S:1:pos:R:3:Mulliken_Charges:R:1:Loewdin_Charges:R:1 dipole_b3lyp="-11.334293359251234 -5.608030439193789 -8.214942006493061" name=MuMLGlycineN6beta dipole_vector="_JSON [-4.40509, -2.14293, -3.19227]" pbc="F F F"
C       -8.72771143      -3.42184150      -6.44808499       0.29005500      -0.49183100
C       -7.71623714      -3.89602102      -5.42730950      -0.11771300      -0.23629800
N       -6.84138354      -2.79833004      -5.08969276      -0.27433000       0.13182500
C       -5.83948558      -2.93315635      -4.18876631       0.28525700      -0.43848200
C       -5.00628090      -1.67155691      -3.94508068      -0.14686900      -0.23761600
N       -4.00013858      -1.99254549      -2.96307143      -0.25316500       0.13377100
O       -9.57361636      -4.41509987      -6.79842651      -0.35380400       0.10840100
O       -8.77625781      -2.29497683      -6.89706504      -0.33478200       0.09201300
O       -5.60326043      -3.98925523      -3.60014098      -0.40975200       0.05200700
H       -7.15681612      -4.75079230      -5.83980850       0.15981300       0.16111100
H       -8.24616472      -4.28111901      -4.54156859       0.15865800       0.16121200
H       -7.02656898      -1.91777846      -5.56641048       0.25339900       0.20064700
H       -5.65221894      -0.84939964      -3.59643441       0.14921900       0.15242400
H       -4.54734342      -1.33143992      -4.88778504       0.14911500       0.15234400
C       -3.10820754      -1.08329971      -2.51347925       0.28302900      -0.44078300
C       -2.11637943      -1.60346040      -1.46719317      -0.15260900      -0.23774000
N       -1.25520105      -0.50678643      -1.09892523      -0.25754800       0.13340600
O       -3.07776098       0.08619426      -2.90519701      -0.42119400       0.04361900
H       -4.02544162      -2.95833615      -2.63212344       0.25254300       0.20149500
H       -1.53570937      -2.44457934      -1.87948051       0.15009400       0.15179900
H       -2.65701991      -1.99503915      -0.59044843       0.14746000       0.15173900
C       -0.27673216      -0.62202330      -0.17569526       0.27469100      -0.44191200
C        0.52641564       0.65765309       0.08134802      -0.14578600      -0.23813400
N        1.51332525       0.36364979       1.09107861      -0.25308300       0.13317000
O       -0.03049778      -1.67018415       0.42723117      -0.42026500       0.04214000
H       -1.45734710       0.36644637      -1.58924893       0.25215300       0.20142300
H       -0.14382843       1.46925194       0.40749788       0.14584800       0.15139500
H        1.00264213       1.00059364      -0.85150138       0.14695900       0.15135700
C        2.37394360       1.29333034       1.55866803       0.28565200      -0.44136300
C        3.34820699       0.80050217       2.63443939      -0.15261300      -0.23985100
N        4.17839452       1.91492242       3.01802752      -0.26107500       0.13082700
O        2.39041650       2.46137139       1.16032639      -0.42395900       0.04114800
H        1.49739568      -0.60132402       1.42575245       0.25123500       0.20087500
H        3.95503885      -0.03261433       2.24373168       0.14775900       0.15087300
H        2.79154799       0.40330471       3.49879477       0.14445900       0.15066100
C        5.14087658       1.82258961       3.96286287       0.27805000      -0.44122500
C        5.91087036       3.11914451       4.22986431      -0.13867200      -0.24475800
N        6.89112750       2.86153515       5.25372245      -0.26128600       0.11808200
O        5.39130614       0.77900938       4.57232712      -0.42384000       0.03877700
H        3.97248918       2.78183568       2.51893958       0.25077900       0.20052200
H        5.21296054       3.91526431       4.53820560       0.13843100       0.14932200
H        6.38896466       3.47161994       3.30080382       0.14153900       0.14952200
H      -10.19355301      -4.04039492      -7.45457029       0.34309800       0.20919900
H        6.89677333       1.90275154       5.60201179       0.24410600       0.19584400
C        7.74042831       3.81667213       5.71541929       0.20353900      -0.46109100
O        7.73412112       4.97351687       5.29299258      -0.40123800       0.03844200
C        8.71615632       3.34308137       6.81249958      -0.13811900      -0.32388100
N        9.63038472       4.35686099       7.30975205      -0.48232600      -0.16214300
H        9.29708758       2.49300650       6.42017970       0.13008700       0.14192600
H        8.12753857       2.94282406       7.65358759       0.12525700       0.14154400
H       10.16467392       4.73519688       6.52544627       0.22080200       0.15611900
H        9.08855305       5.15128703       7.65485502       0.22093900       0.15612800
