31
Properties=species:S:1:pos:R:3:Mulliken_Charges:R:1:Loewdin_Charges:R:1 dipole_b3lyp="0.8932804465267 2.274741331402747 -0.251359487701876" name=MuMLSAminoAcidN4 dipole_vector="_JSON [0.36785, 0.91718, -0.09814]" pbc="F F F"
C       -5.33456498       0.04611148      -1.09936443      -0.08891900      -0.35047900
C       -3.99649120       0.78363420      -0.95699675      -0.20815200      -0.29220700
C       -2.83580680      -0.13283074      -0.56211118      -0.21365500      -0.27290700
C       -1.49873562       0.59761309      -0.41751842      -0.19290600      -0.27357800
C       -0.33810599      -0.31656754      -0.01917169      -0.19511100      -0.27163200
C        0.99808654       0.41697089       0.11673440      -0.19001600      -0.27224800
C        2.15309248      -0.49875279       0.52680715      -0.19174900      -0.26070000
C        3.47742372       0.24859979       0.65120743      -0.21165400      -0.23716200
N       -6.49472254       0.85899189      -1.47698618      -0.48864900      -0.18074000
C        4.63509953      -0.62761926       1.06888123       0.27574500      -0.48453800
O        5.79083188       0.09518510       1.17416722      -0.37218600       0.07428900
O        4.59277386      -1.81894056       1.29253055      -0.32288700       0.09295100
H        6.47916760      -0.54293318       1.44492026       0.32646300       0.19763900
H       -5.57504566      -0.45840456      -0.14963775       0.10316300       0.13032000
H       -5.23060633      -0.75570337      -1.84804075       0.10802700       0.13076800
H       -4.10663498       1.58485740      -0.20566477       0.08865400       0.13263400
H       -3.76138208       1.28767283      -1.91051287       0.08564900       0.13222400
H       -2.73265507      -0.93468307      -1.31322313       0.09919500       0.13829100
H       -3.07818719      -0.63918755       0.38793170       0.09591700       0.13788000
H       -1.60282205       1.40097121       0.33186457       0.09777600       0.13750300
H       -1.25552770       1.10181735      -1.36850320       0.09421500       0.13707100
H       -0.23569053      -1.12339053      -0.76466135       0.10087500       0.13883100
H       -0.57752949      -0.81602193       0.93499982       0.09763000       0.13845800
H        0.89300140       1.22958864       0.85626240       0.09784200       0.13769100
H        1.24075392       0.91006267      -0.84043292       0.09435800       0.13720000
H        2.26383049      -1.31389833      -0.20419285       0.11294900       0.14512600
H        1.92156439      -0.98794592       1.48506035       0.11036800       0.14480600
H        3.40531730       1.07251826       1.37972453       0.13499800       0.15884300
H        3.75455649       0.73258473      -0.29956088       0.12977900       0.15851000
H       -6.32420935       1.32456577      -2.36981032       0.21177800       0.14757300
H       -6.64367505       1.60167495      -0.79200790       0.21050200       0.14758300
43
Properties=species:S:1:pos:R:3:Mulliken_Charges:R:1:Loewdin_Charges:R:1 dipole_b3lyp="0.780537390638694 2.296066801126611 -0.368600087706429" name=MuMLSAminoAcidN6 dipole_vector="_JSON [0.32369, 0.92593, -0.14845]" pbc="F F F"
C       -2.85968526      -0.32680981      -0.58935849      -0.18554400      -0.27276000
C       -1.56697533       0.48192321      -0.45902988      -0.18392600      -0.27297700
C       -0.38154323      -0.33248532       0.06363352      -0.18435300      -0.27254100
C        0.91352335       0.47433192       0.18018691      -0.18500800      -0.27285100
C        2.10319945      -0.34396047       0.68666930      -0.18594800      -0.27115700
C        3.40210327       0.45927411       0.78390393      -0.18624900      -0.27182900
C        4.59029921      -0.36924625       1.27621045      -0.18289800      -0.26025600
C        5.87988329       0.44238708       1.35372920      -0.20515800      -0.23686500
C        7.07403805      -0.35457483       1.82455341       0.27155700      -0.48425800
O        8.19904861       0.42081550       1.87504120      -0.37201400       0.07413500
O        7.08197954      -1.52894248       2.12789858      -0.32320000       0.09271000
H        8.91371332      -0.16883745       2.18468479       0.32611900       0.19752900
H       -3.12598873      -0.74995177       0.39441771       0.08982900       0.13676600
H       -2.68218677      -1.19161574      -1.25154819       0.09538000       0.13716600
H       -1.74140446       1.34246391       0.20953039       0.09456800       0.13686300
H       -1.30697256       0.91159118      -1.44179003       0.08893500       0.13662600
H       -0.21238287      -1.19608480      -0.60224687       0.09546100       0.13737500
H       -0.63676727      -0.75744812       1.04950957       0.09040700       0.13695700
H        0.74872875       1.33380371       0.85256766       0.09486200       0.13694100
H        1.16232462       0.90537161      -0.80488007       0.08946700       0.13671900
H        2.26086762      -1.20842883       0.01942355       0.09803800       0.13842100
H        1.86155564      -0.76721561       1.67647226       0.09351700       0.13799000
H        3.24860685       1.32049985       1.45691299       0.09595100       0.13723400
H        3.63802326       0.88808752      -0.20543813       0.09100100       0.13699200
H        4.74562792      -1.23267254       0.61167179       0.11109400       0.14492300
H        4.36793647      -0.79301441       2.26727439       0.10605000       0.14433200
H        5.77011567       1.30640589       2.02922907       0.13227100       0.15850300
H        6.13780371       0.87745627       0.37432265       0.12857700       0.15836000
C       -4.03972596       0.48604610      -1.12684664      -0.18539400      -0.27317200
C       -5.33288030      -0.32131452      -1.26261727      -0.20706100      -0.27265200
C       -6.51084548       0.49006252      -1.80794383      -0.20188900      -0.29168100
C       -7.80329264      -0.32628601      -1.94163109      -0.07829300      -0.34992000
N       -8.97763874       0.38346585      -2.45860735      -0.49327100      -0.18136500
H       -3.77110612       0.90968532      -2.10979836       0.08948600       0.13663600
H       -4.21837413       1.35048521      -0.46458665       0.09529100       0.13693200
H       -5.60423646      -0.74146491      -0.27887769       0.09070100       0.13720100
H       -5.15229090      -1.18830479      -1.92115554       0.09633800       0.13758100
H       -6.24635015       0.90738008      -2.79511321       0.08185300       0.13189900
H       -6.69968639       1.35585197      -1.14964376       0.08710900       0.13223000
H       -8.07252308      -0.74552465      -0.95872943       0.09939000       0.12991600
H       -7.62073813      -1.19219172      -2.59835186       0.10584200       0.13037500
H       -8.77922459       0.76627244      -3.38441838       0.21137700       0.14758200
H       -9.19841527       1.18206831      -1.86146284       0.20973400       0.14739100
55
Properties=species:S:1:pos:R:3:Mulliken_Charges:R:1:Loewdin_Charges:R:1 dipole_b3lyp="0.790940499612449 2.197365068012492 -0.678435113346232" name=MuMLSAminoAcidN8 dipole_vector="_JSON [0.32848, 0.88674, -0.27279]" pbc="F F F"
C       -0.41310980      -0.36344307       0.11019107      -0.17993900      -0.27287200
C        0.87893391       0.45566011       0.15166408      -0.18191000      -0.27315500
C        2.05214404      -0.27403878       0.80973043      -0.18187600      -0.27261800
C        3.34515668       0.54436832       0.83483580      -0.18165200      -0.27294200
C        4.52537022      -0.18805511       1.47703348      -0.18564000      -0.27121300
C        5.81983690       0.62824726       1.48514548      -0.18379700      -0.27194400
C        6.99846649      -0.10954353       2.12295110      -0.18804900      -0.26035600
C        8.28223202       0.71494597       2.10925027      -0.18884400      -0.23669200
C        9.46748436       0.00844007       2.72413703       0.26413500      -0.48496100
O       10.58872177       0.79007754       2.67911261      -0.37284100       0.07389700
O        9.47192548      -1.10460133       3.20608095      -0.32167600       0.09339800
H       11.29782024       0.26049364       3.09276992       0.32660500       0.19754700
H       -0.69877586      -0.64714966       1.13769436       0.08790800       0.13661300
H       -0.22595967      -1.31115901      -0.42342402       0.09369900       0.13696800
H        0.69261629       1.40270171       0.68681207       0.09367300       0.13687900
H        1.16028166       0.74111594      -0.87666613       0.08737000       0.13663100
H        2.23371104      -1.22410043       0.27846885       0.09415400       0.13723300
H        1.77661047      -0.55306120       1.84121039       0.08923900       0.13689100
H        3.16669153       1.49100707       1.37341461       0.09408700       0.13696200
H        3.61319051       0.83039007      -0.19690012       0.08811700       0.13675600
H        4.69887846      -1.13799124       0.94316577       0.09695100       0.13832100
H        4.26389642      -0.46697752       2.51199079       0.09270300       0.13802700
H        5.64758390       1.57865883       2.01927506       0.09491400       0.13725800
H        6.07865269       0.90749429       0.44910712       0.09024100       0.13707200
H        7.17366251      -1.06090368       1.59810628       0.11024500       0.14481600
H        6.75385030      -0.38293193       3.16058844       0.10619700       0.14444300
H        8.15110888       1.66945808       2.64471595       0.12754900       0.15837400
H        8.56301860       1.00075012       1.08240193       0.12881000       0.15841200
N      -11.38646017      -0.03167632      -3.46130179      -0.49677200      -0.18152800
H      -11.15899011       0.22136898      -4.42424606       0.21233300       0.14767600
H      -11.61312589       0.84188946      -2.98319409       0.20985600       0.14738800
C       -1.58039120       0.36865698      -0.55565783      -0.18167000      -0.27319100
C       -2.87221424      -0.44985796      -0.61170661      -0.17974200      -0.27289000
C       -4.03435472       0.28642629      -1.28198619      -0.18216800      -0.27314300
C       -5.32861818      -0.52782456      -1.34269053      -0.18099300      -0.27294700
C       -6.48665673       0.21253555      -2.01559320      -0.18433800      -0.27323900
C       -7.78377045      -0.59757597      -2.07794693      -0.20307100      -0.27271400
C       -8.93834038       0.14260443      -2.75791863      -0.20307600      -0.29175500
C      -10.23490941      -0.67547259      -2.82132238      -0.07073200      -0.34996000
H       -1.28990534       0.65875832      -1.58013095       0.08689000       0.13657000
H       -1.77153124       1.31335696      -0.01800855       0.09372300       0.13686600
H       -3.16572275      -0.73889448       0.41211387       0.08735800       0.13656300
H       -2.68146720      -1.39484323      -1.14892703       0.09390000       0.13690900
H       -3.73893587       0.57605870      -2.30517532       0.08698600       0.13656300
H       -4.22426366       1.23147986      -0.74452697       0.09377200       0.13688900
H       -5.62583130      -0.81659038      -0.31987153       0.08763200       0.13664900
H       -5.13947120      -1.47304734      -1.88004483       0.09432000       0.13699400
H       -6.18865244       0.50013442      -3.03850461       0.08783900       0.13662500
H       -6.67435492       1.15851539      -1.47920991       0.09456800       0.13694800
H       -8.08481382      -0.88149861      -1.05485462       0.08923400       0.13714200
H       -7.59490890      -1.54545669      -2.61066839       0.09525900       0.13748400
H       -8.64235922       0.42570715      -3.78306415       0.08083100       0.13195000
H       -9.13644986       1.08817637      -2.22384095       0.08609100       0.13222800
H      -10.53633027      -0.96020780      -1.80029901       0.09848100       0.12992000
H      -10.04323713      -1.62121873      -3.35341211       0.10311100       0.13025800
67
Properties=species:S:1:pos:R:3:Mulliken_Charges:R:1:Loewdin_Charges:R:1 dipole_b3lyp="0.774416829249976 2.233626334896553 -0.728892782531343" name=MuMLSAminoAcidN10 dipole_vector="_JSON [0.32104, 0.89874, -0.29348]" pbc="F F F"
C        2.04700057      -0.17624336       0.77040662      -0.18319600      -0.27328200
C        3.35167674       0.62254394       0.72884905      -0.18042500      -0.27326800
C        4.53322918      -0.09961478       1.38015044      -0.18427500      -0.27298500
C        5.84035386       0.69497713       1.33850543      -0.18040800      -0.27309400
C        7.01864714      -0.03076392       1.99144313      -0.18811400      -0.27152700
C        8.32739506       0.76125039       1.95149113      -0.18247100      -0.27196800
C        9.49732574       0.02658801       2.60914209      -0.19124700      -0.26050200
C       10.79541695       0.82713404       2.56262933      -0.18757800      -0.23668500
C       11.96797636       0.12382623       3.20470280       0.26454900      -0.48519200
O       13.09921608       0.88967886       3.14491069      -0.37287900       0.07404300
O       11.95586023      -0.97519157       3.71759256      -0.32160100       0.09343600
H       13.79895807       0.36302818       3.57755842       0.32663500       0.19749500
H        1.79620585      -0.40906334       1.81959707       0.09053600       0.13692000
H        2.20161434      -1.15006359       0.27465250       0.09199800       0.13703700
H        3.19948744       1.59543333       1.22710241       0.09153400       0.13676300
H        3.60157446       0.85685660      -0.32026739       0.08982200       0.13671900
H        4.68353222      -1.07294000       0.88225002       0.09283400       0.13729500
H        4.28312989      -0.33356718       2.42923005       0.09132500       0.13722200
H        5.69074994       1.66851134       1.83629044       0.09196700       0.13690600
H        6.09163744       0.92790545       0.28941942       0.09050900       0.13684400
H        7.16830279      -1.00418617       1.49414627       0.09588300       0.13837000
H        6.76735168      -0.26374611       3.04019865       0.09445200       0.13831200
H        8.17841405       1.73559953       2.44801369       0.09333000       0.13717300
H        8.58088086       0.99284053       0.90253908       0.09212900       0.13713000
H        9.65355899      -0.94554403       2.11757258       0.10955800       0.14483800
H        9.25242993      -0.20580161       3.65659815       0.10765700       0.14460600
H       10.68168978       1.80434725       3.05931379       0.12626100       0.15817300
H       11.08099078       1.06644206       1.52525349       0.13006300       0.15865300
N      -13.91065455      -0.45091579      -3.98861066      -0.49903000      -0.18175600
H      -13.68778901      -0.21412511      -4.95671938       0.21289900       0.14773500
H      -14.17841254       0.42443499      -3.53578844       0.21040000       0.14749300
C        0.86393166       0.54004732       0.11532977      -0.17936400      -0.27333400
C       -0.43633720      -0.26607070       0.15018969      -0.18399600      -0.27340600
C       -1.61971810       0.44121285      -0.51417847      -0.17877400      -0.27326900
C       -2.91306939      -0.37664818      -0.49177989      -0.18369800      -0.27337400
H        1.11707359       0.77652767      -0.93254032       0.08934900       0.13668100
H        0.70453447       1.51174502       0.61364747       0.09172100       0.13672500
H       -0.69276470      -0.49867378       1.19808633       0.09019700       0.13682000
H       -0.27271540      -1.23979291      -0.34288453       0.09191900       0.13699400
H       -1.35957880       0.68108839      -1.55956446       0.08886300       0.13662100
H       -1.79200873       1.41092406      -0.01626528       0.09211000       0.13669600
H       -3.17673589      -0.61281277       0.55351056       0.08969800       0.13675200
H       -2.73587539      -1.34824992      -0.98438963       0.09222700       0.13698500
C       -4.09641770       0.32078304      -1.16633429      -0.17928200      -0.27328900
C       -5.38273604      -0.50824855      -1.15879248      -0.18333700      -0.27325800
C       -6.56476438       0.18158397      -1.84351575      -0.18013200      -0.27317700
C       -7.84381129      -0.65855619      -1.85324671      -0.18425000      -0.27320000
C       -9.02382997       0.02356951      -2.54907282      -0.18182600      -0.27321600
C      -10.29459290      -0.82892059      -2.57886078      -0.20610000      -0.27292700
C      -11.47427348      -0.15490211      -3.28369158      -0.20059100      -0.29164800
C      -12.73660577      -1.02624541      -3.32498663      -0.06923100      -0.34990400
H       -3.82812440       0.56499687      -2.20865704       0.08843700       0.13662700
H       -4.28241697       1.28794475      -0.66843295       0.09252800       0.13673800
H       -5.65513066      -0.74959109      -0.11694411       0.08932200       0.13672000
H       -5.19269169      -1.47689338      -1.65238579       0.09268700       0.13700600
H       -6.28714862       0.43206167      -2.88189162       0.08807600       0.13661800
H       -6.76436646       1.14519381      -1.34403074       0.09303000       0.13676600
H       -8.12593429      -0.90581593      -0.81539568       0.08933700       0.13677600
H       -7.63976244      -1.62372807      -2.34801689       0.09335600       0.13711000
H       -8.73611762       0.28209504      -3.58260727       0.08839100       0.13664300
H       -9.23925238       0.98241786      -2.04717083       0.09405800       0.13683400
H      -10.58538883      -1.08520565      -1.54560891       0.09029200       0.13723600
H      -10.07458220      -1.78906481      -3.07664480       0.09464400       0.13757600
H      -11.18614302       0.10768901      -4.31641847       0.08107400       0.13196000
H      -11.71161410       0.79813020      -2.77980948       0.08541900       0.13211600
H      -13.03062440      -1.29091475      -2.29653572       0.09908100       0.12996800
H      -12.50374813      -1.97973617      -3.82604206       0.10164600       0.13013100
