18
Properties=species:S:1:pos:R:3:initial_charges:R:1 dipole_vector="0.79322 -0.42447 -0.13596" dipole_moment=2.1266 pbc="F F F"
O       -0.15929806       1.41551830      -0.23724654      -0.42006600
C       -0.01243436       0.03756927       0.07184081      -0.07261200
C       -1.38705504      -0.61049854      -0.02056202      -0.16433300
C       -1.35484026      -2.10952230       0.27267571      -0.14261000
N       -2.69817140      -2.67609201       0.22154288      -0.05756900
C       -3.15093621      -3.14604612      -1.08343201      -0.21839600
C       -2.78707968      -4.11197851      -0.01007911      -0.22107400
H        0.70496851       1.83165311      -0.17143540       0.28469000
H        0.68253179      -0.45473402      -0.62900462       0.08170100
H        0.39891882      -0.10143067       1.08555248       0.08394500
H       -2.06631798      -0.11727311       0.68236469       0.11780300
H       -1.78938583      -0.43651074      -1.02548934       0.10709800
H       -0.66919256      -2.61707993      -0.43323847       0.07423000
H       -0.95907739      -2.28702510       1.28095956       0.10116600
H       -4.19170245      -2.95072540      -1.32512301       0.11688800
H       -2.46392405      -3.05891601      -1.92463184       0.10713200
H       -1.85915238      -4.66810844      -0.13798856       0.10614800
H       -3.55697127      -4.63594445       0.54935435       0.11586100
11
Properties=species:S:1:pos:R:3:initial_charges:R:1 dipole_vector="-0.01715 0.63373 -0.64386" dipole_moment=2.2243 pbc="F F F"
O        0.00147993      -0.02618698      -0.06024755      -0.28592800
C       -0.01463456       1.15263400      -0.05799804       0.42331200
C       -1.03361544       2.38130014       0.06427388      -0.09241000
O       -0.02533945       2.92944375       0.95727710      -0.25858300
C        0.97323736       2.40878803       0.03733708      -0.09241700
C        0.61654042       3.07366226      -1.27039863      -0.08000600
C       -0.73048290       3.05516639      -1.25234040      -0.08002200
H       -2.03766389       2.32723682       0.47570707       0.10779200
H        1.98906893       2.38239020       0.42165767       0.10779000
H        1.30022678       3.38383632      -2.04619089       0.12523500
H       -1.44297595       3.34617649      -2.00941101       0.12523600
18
Properties=species:S:1:pos:R:3:initial_charges:R:1 dipole_vector="-0.00057 0.00893 -0.01121" dipole_moment=0.0271 pbc="F F F"
C       -0.18409064       1.42373294       0.09673811      -0.38310100
C        0.08274793      -0.07910090      -0.06934735       0.02926300
C        0.86548723      -0.36517631      -1.35883489      -0.38310200
C        0.80225868      -0.64361098       1.14325690       0.06065700
C        0.03753481      -1.03089066       2.38284090      -0.27508900
C        0.66331364      -2.09752924       1.51497211      -0.27508900
H        0.75780454       1.98002116       0.17466159       0.10930800
H       -0.73595040       1.82659499      -0.75917759       0.10652800
H       -0.76506346       1.62558637       1.00205232       0.11282400
H       -0.88874545      -0.58997801      -0.14199684       0.06452900
H        1.84661090       0.12425017      -1.33530988       0.10930800
H        1.03276755      -1.43865697      -1.49121671       0.11282400
H        0.33130412       0.00756482      -2.23926174       0.10652800
H        1.78454601      -0.20558796       1.31319395       0.07404700
H        0.47908121      -0.83026739       3.35285154       0.10776000
H       -1.04353371      -0.93393772       2.36061352       0.10752400
H       -0.00068439      -2.71147447       0.91432153       0.10752400
H        1.53229167      -2.62546599       1.89218998       0.10776000
