9
Properties=species:S:1:pos:R:3:initial_charges:R:1 dipole_vector="-0.00445 0.38577 0.05273" dipole_moment=0.8477 pbc="F F F"
O       -0.00031692       0.00676321      -0.17139774      -0.25511000
C       -0.01417098       1.18672865      -0.00980279       0.34241700
C       -1.08283120       2.27653381       0.15574094      -0.18186400
O       -0.03856115       3.26460423       0.27513986      -0.26754300
C        1.02857270       2.30515693       0.12774311      -0.18186400
H       -1.72923855       2.43647507      -0.71671274       0.13598700
H       -1.70219898       2.19346725       1.05800754       0.13599500
H        1.67366781       2.23923293       1.01324179       0.13599500
H        1.64705068       2.48224548      -0.76148355       0.13598700
14
Properties=species:S:1:pos:R:3:initial_charges:R:1 dipole_vector="-0.45542 -0.38589 0.00265" dipole_moment=1.3282 pbc="F F F"
O       -0.10078225       1.35469949       0.00875532      -0.39923700
N        0.03322320      -0.04820310       0.00392230      -0.23815800
C       -1.10716745      -0.62582039       0.01118863       0.38242600
C       -1.23298055      -2.14255242       0.00808224      -0.29512200
C       -2.76366564      -2.40468117       0.01884354      -0.26679500
C       -3.37188051      -1.02455619       0.02743178      -0.06288200
C       -2.45175450      -0.05113051       0.02312208      -0.13737700
H        0.81763420       1.64268480       0.00242595       0.30431100
H       -0.75014387      -2.57049331      -0.87455411       0.12712100
H       -0.73708497      -2.57510859       0.88118310       0.12712500
H       -3.09315804      -2.97875288      -0.85586552       0.11677500
H       -3.07998782      -2.98389777       0.89501662       0.11676700
H       -4.44479196      -0.86546614       0.03609305       0.10514900
H       -2.63496731       1.01346812       0.02750636       0.11989600
15
Properties=species:S:1:pos:R:3:initial_charges:R:1 dipole_vector="0.06361 0.24527 -0.48108" dipole_moment=1.3819 pbc="F F F"
O       -0.19758047       1.41474635      -0.00588316      -0.46606500
C       -0.09086687       0.02731096       0.02867211       0.37240800
C       -0.39641239      -0.81539670      -1.18150755      -0.34623100
C       -1.32042222      -0.83769147       0.02198018      -0.09808200
C       -1.06163461      -1.92311423       1.04744531      -0.08975800
O        0.35358524      -1.92672477       1.24987803      -0.25486800
C        0.83173513      -0.60046367       1.06612148      -0.13957100
H        0.52851265       1.75815204      -0.53743394       0.28627600
H       -0.76471602      -0.28496783      -2.05265055       0.11335900
H        0.21945710      -1.68589755      -1.38681695       0.12116200
H       -2.30474021      -0.39374586      -0.06048578       0.10030600
H       -1.59678230      -1.69549796       1.98339004       0.09512900
H       -1.34112336      -2.93164652       0.72552479       0.10879300
H        1.88202969      -0.67281249       0.76180298       0.09977700
H        0.77272935      -0.00407245       1.99120661       0.09736300
13
Properties=species:S:1:pos:R:3:initial_charges:R:1 dipole_vector="-0.34018 0.24752 -0.96716" dipole_moment=2.5239 pbc="F F F"
C       -0.14597874       1.54320425       0.08452278      -0.40331100
C        0.01455359       0.03238404      -0.02706596      -0.11354800
C        0.89388239      -0.54051512      -1.16282042      -0.09218700
O        1.79623339      -1.13321850      -0.17655678      -0.25346800
C        1.05822115      -0.61350847       0.86805026       0.43795800
N        1.24198146      -0.66915560       2.10646879      -0.54361600
H        0.81844506       2.05086209      -0.01696027       0.12594500
H       -0.81811489       1.92497916      -0.69040274       0.12028500
H       -0.56238103       1.80694810       1.06047549       0.14490800
H       -0.95484583      -0.46763019       0.05344139       0.11006200
H        0.44645451      -1.30998710      -1.79628897       0.12029800
H        1.41885018       0.19907552      -1.77398626       0.11894200
H        2.08602267      -1.19620969       2.33670162       0.22773200
14
Properties=species:S:1:pos:R:3:initial_charges:R:1 dipole_vector="1.14077 1.90328 0.13842" dipole_moment=5.3865 pbc="F F F"
O       -0.10281019      -0.04325961       0.13985892      -0.31101600
C       -0.02423852       1.17290761       0.11337669       0.05446900
C        1.20241413       1.91647169       0.01628970       0.17956200
C        1.31157980       3.26620466      -0.04081485      -0.07014000
N        2.60104243       3.69292671      -0.20042040      -0.27894100
C        3.51253541       2.55728245       0.04778750      -0.16956000
C        2.59204162       1.31766867      -0.11445580      -0.31171500
H       -0.94119081       1.80538600       0.17455560       0.04276700
H        0.50655438       3.99123380      -0.01143544       0.13164500
H        2.86655763       4.61740158       0.10118623       0.25007200
H        4.34820810       2.57071867      -0.65620690       0.11957300
H        3.92277373       2.61611304       1.06510917       0.11179400
H        2.79418916       0.54569235       0.63144091       0.12850000
H        2.72172152       0.85061693      -1.09804760       0.12299000
15
Properties=species:S:1:pos:R:3:initial_charges:R:1 dipole_vector="0.15165 0.48756 0.79509" dipole_moment=2.2377 pbc="F F F"
O        0.02413307       1.38851918       0.18795214      -0.43038100
C        0.04901114      -0.01262042      -0.00948857       0.12349900
C       -1.39556324      -0.53768230      -0.06887366      -0.22245900
C       -1.28022133      -1.90308094      -0.75961007      -0.32147800
C       -0.05407653      -1.78382259      -1.67639618       0.40042100
O        0.28815600      -2.58790154      -2.50284465      -0.30938000
C        0.65919495      -0.46860266      -1.34565749      -0.34851500
H        0.93037988       1.69752081       0.28341766       0.28496900
H        0.57894912      -0.50875088       0.82006518       0.07272400
H       -1.86220696      -0.57773226       0.91749223       0.10973400
H       -1.97685462       0.15997090      -0.68236238       0.11809400
H       -1.06940664      -2.70537358      -0.04020782       0.13274100
H       -2.16279716      -2.21183676      -1.32472989       0.13264800
H        0.39037879       0.26344237      -2.11974508       0.13789300
H        1.74544545      -0.58619840      -1.35932460       0.11948900
11
Properties=species:S:1:pos:R:3:initial_charges:R:1 dipole_vector="-0.68365 0.09961 0.64096" dipole_moment=2.2464 pbc="F F F"
O        0.07414631      -0.16763756       0.09204613      -0.21796700
C        0.04717670       0.99346998      -0.20393353       0.17086600
C        1.27397302       1.91082920      -0.10862012      -0.42220700
C        1.32444436       2.89883844      -1.16996263       0.08697700
C        1.34304993       3.70353260      -2.07030133       0.02785200
C        1.34492122       4.66815242      -3.14216783       0.02372300
O        2.33821832       5.20380426      -3.57541752      -0.22204000
H       -0.87871731       1.49859861      -0.55246164       0.10265900
H        1.20749547       2.42503549       0.86281312       0.17429700
H        2.17510429       1.29001729      -0.07746908       0.17209500
H        0.33935523       4.89030305      -3.55299537       0.10374600
11
Properties=species:S:1:pos:R:3:initial_charges:R:1 dipole_vector="0.19512 1.44828 -0.52366" dipole_moment=3.691 pbc="F F F"
O        0.01206747       0.02732903      -0.07138617      -0.30117400
C        0.01406395       1.21615020       0.04515213       0.45040600
C       -1.11734178       2.28891913       0.13190368      -0.34076200
C       -0.01244363       3.33382901      -0.07488878      -0.04320300
N        0.87110947       3.20151042       1.08672085      -0.32160700
C        1.07245114       2.28871782      -0.09537829      -0.17755400
H       -1.80277788       2.17614775      -0.71270061       0.13175400
H       -1.67416018       2.36134998       1.06789252       0.13473300
H       -0.06267390       4.24080542      -0.66198738       0.11272100
H        1.60334129       3.90850497       1.00903229       0.24035400
H        2.02526752       2.25277317      -0.60762337       0.11433200
19
Properties=species:S:1:pos:R:3:initial_charges:R:1 dipole_vector="0.75642 0.66712 0.6865" dipole_moment=2.8513 pbc="F F F"
C        0.02108308       1.55999072       0.05755478      -0.39075100
C        0.03888622       0.02520735       0.04404226       0.04465000
C        0.80247541      -0.51618274       1.26018117      -0.38372500
C       -1.39955938      -0.52032195      -0.04203709      -0.17937100
C       -1.49647916      -2.04127210      -0.26098636      -0.28147400
C       -2.93358268      -2.50518716      -0.29492208       0.16100600
O       -3.45196366      -3.09754248      -1.20593619      -0.23888300
H        1.03740698       1.96649184       0.07759084       0.11286000
H       -0.48448000       1.96248767      -0.82633062       0.11297400
H       -0.50408165       1.93797762       0.94297723       0.11314200
H        0.57073750      -0.29760762      -0.86246345       0.07701600
H        0.90265716      -1.60544977       1.23828832       0.11465400
H        1.81294637      -0.09706826       1.30071809       0.11531600
H        0.29391600      -0.24443911       2.19329863       0.11237800
H       -1.94151448      -0.24772302       0.87490826       0.09752700
H       -1.91938197      -0.01529843      -0.86576343       0.10677200
H       -1.00935795      -2.34495853      -1.19258485       0.11950800
H       -1.00617256      -2.56754447       0.56959009       0.11886700
H       -3.51666102      -2.24447830       0.62108117       0.06753300
16
Properties=species:S:1:pos:R:3:initial_charges:R:1 dipole_vector="0.61195 -0.57617 -0.54542" dipole_moment=2.3417 pbc="F F F"
C       -0.10918292       1.55738075       0.29372123      -0.32056600
N        0.01513735       0.11587514       0.12405857      -0.07066200
C        1.30152716      -0.40858805      -0.31614169      -0.25828300
C        0.80938953      -0.67073762       1.06679701       0.01155400
C        1.51137431      -0.07020165       2.27490909      -0.31194700
C        0.56470007       0.12350517       3.44305335       0.16957900
O        0.46371843       1.13592273       4.08562405      -0.23816100
H        0.82118407       2.06897642       0.58455533       0.10531500
H       -0.44365584       1.98823571      -0.65505681       0.12789100
H       -0.86893988       1.77249667       1.05132744       0.13436500
H        1.27351603      -1.18458225      -1.07701612       0.11816500
H        2.12966393       0.29369589      -0.41471045       0.10755900
H        0.36784404      -1.64660418       1.27078576       0.09524700
H        2.28585758      -0.78042471       2.60140300       0.12883000
H        2.00456315       0.87957783       2.05942546       0.12536200
H       -0.05716983      -0.77174564       3.68093178       0.07575300
18
Properties=species:S:1:pos:R:3:initial_charges:R:1 dipole_vector="-0.11017 -0.16433 -0.22611" dipole_moment=0.6108 pbc="F F F"
C        1.08751958       0.51495212      -1.06555158      -0.37434100
C        0.03880231       0.00705263      -0.05767786      -0.26318000
C        0.68201730      -0.60043603       1.16601244       0.36621100
C        0.81666248      -2.09913119       1.27323243      -0.25524800
C       -0.52406545      -2.81106173       1.52104412      -0.37822600
N        1.15558463       0.07408032       2.14423580      -0.17545100
O        0.98579877       1.46163169       1.96078851      -0.40265800
H        1.74403046      -0.29514798      -1.39939459       0.11511900
H        0.59877513       0.93630208      -1.94925321       0.11325000
H        1.70645132       1.29088426      -0.60978003       0.14108300
H       -0.59606928       0.84246576       0.25090824       0.12717200
H       -0.60252031      -0.73847147      -0.53837936       0.09680300
H        1.26363712      -2.48166065       0.34541646       0.10354400
H        1.51117898      -2.32446858       2.08703242       0.11726600
H       -0.96537376      -2.48446669       2.46747514       0.12805200
H       -1.24751388      -2.60722893       0.72521106       0.11967900
H       -0.38028942      -3.89472702       1.56816897       0.11685500
H        1.36858185       1.81643618       2.76952123       0.30407100
11
Properties=species:S:1:pos:R:3:initial_charges:R:1 dipole_vector="-0.10215 0.16283 0.13709" dipole_moment=0.572 pbc="F F F"
O       -0.84518054       1.33331300       0.36669616      -0.21458100
C        0.12176565       0.98366940      -0.25656793       0.08546000
C        1.40266098       1.82351548      -0.37210054       0.29615500
O        2.32078598       1.38963387      -1.01914155      -0.24934000
C        1.38034981       3.15814975       0.36493018      -0.48638500
C        2.60201133       3.93021524       0.23900397       0.30930500
C        3.61414861       4.56653760       0.13284393      -0.40738400
H        0.18732983       0.02342929      -0.80906494       0.11867200
H        0.50817875       3.71829642       0.00031657       0.17222000
H        1.14173147       2.94681313       1.41648997       0.17222600
H        4.50887767       5.13090779       0.03990643       0.20365200
14
Properties=species:S:1:pos:R:3:initial_charges:R:1 dipole_vector="0.14078 -0.09007 0.55303" dipole_moment=1.4505 pbc="F F F"
C        0.10072499       1.54291137      -0.05602406      -0.38635300
C       -0.04802828       0.02612003       0.06627191       0.10668400
O        0.53110379      -0.61496589      -1.07776066      -0.27584000
C        1.47877861      -1.59820993      -0.67595639      -0.11109700
C        1.54062866      -1.49528884       0.82228387      -0.09095100
C        0.67151099      -0.58410336       1.24163414      -0.08673300
H        1.15784962       1.82407773      -0.06585568       0.11874000
H       -0.36149056       1.89192377      -0.98372668       0.12558700
H       -0.38971755       2.04750694       0.78332815       0.10897700
H       -1.12424546      -0.21797233       0.09995167       0.07865600
H        1.15533709      -2.59828725      -1.00968987       0.10175200
H        2.44937394      -1.39886551      -1.15640404       0.10451200
H        2.20209520      -2.09812906       1.43163597       0.10394400
H        0.47572514      -0.29078511       2.26536557       0.10212200
14
Properties=species:S:1:pos:R:3:initial_charges:R:1 dipole_vector="-0.05856 0.11124 0.69424" dipole_moment=1.735 pbc="F F F"
C        0.01781039       1.42903803       0.03630343      -0.32540600
N       -0.15569519      -0.00901878      -0.05706576      -0.38047300
C        0.55126870      -0.67236183      -1.05690827       0.26783700
C        1.19989667      -0.14130372      -2.13669275      -0.09410100
O        1.71092040      -1.14464799      -2.92112182      -0.15145400
C        1.39329003      -2.31266663      -2.32134537       0.01801000
C        0.68522439      -2.10004867      -1.18311015      -0.28834700
H        1.07096764       1.73949460       0.13781538       0.10950400
H       -0.38526530       1.90504013      -0.86473610       0.13290500
H       -0.54448595       1.80721088       0.89312274       0.12228300
H       -0.09249409      -0.47461206       0.83699434       0.23367000
H        1.37030558       0.86107145      -2.48665157       0.12219200
H        1.73441903      -3.20614521      -2.81845024       0.13145300
H        0.29425190      -2.85006886      -0.51282986       0.10192700
14
Properties=species:S:1:pos:R:3:initial_charges:R:1 dipole_vector="-0.4764 -0.02583 -0.29151" dipole_moment=1.3342 pbc="F F F"
C       -0.04212139       1.44136707       0.03001793      -0.33473600
N       -0.02964070      -0.00782488       0.14786432      -0.31552400
C       -1.10770326      -0.64845191       0.12205546       0.40688100
C       -1.25788208      -2.15426835       0.20564990      -0.18605800
O       -2.64308094      -2.34159449       0.46209755      -0.23684800
C       -3.28322571      -1.22306077      -0.08766060       0.02271700
O       -2.37530922      -0.12913122       0.01504931      -0.24133900
H        0.63722400       1.73736060      -0.77676364       0.12705200
H       -1.03144395       1.87062725      -0.16424469       0.12344100
H        0.35439708       1.87853564       0.95356683       0.12909200
H       -0.95166870      -2.62604391      -0.74057445       0.12368000
H       -0.67662683      -2.58549696       1.02170772       0.14815200
H       -3.53358966      -1.37528645      -1.15079107       0.10231200
H       -4.18418989      -1.00006961       0.48965106       0.13117800
12
Properties=species:S:1:pos:R:3:initial_charges:R:1 dipole_vector="0.80952 1.25019 -0.00184" dipole_moment=3.6759 pbc="F F F"
C        0.02354170       1.39674958       0.00762264      -0.25469600
O        0.02163707      -0.02192992       0.00285336      -0.25340600
C       -1.19945319      -0.59032504       0.01024383       0.22439300
C       -2.45534098      -0.05944348       0.02183174      -0.05785800
O       -3.36401757      -1.05963075       0.02529133      -0.16754600
N       -2.70717653      -2.27697786       0.01585847      -0.12167600
C       -1.42883949      -1.99562299       0.00700829      -0.05444900
H        1.06839156       1.70867590       0.00055609       0.14403200
H       -0.48390283       1.79411964      -0.88145786       0.12750700
H       -0.46999551       1.78809540       0.90714439       0.12750500
H       -2.84999667       0.94198250       0.02844417       0.14652500
H       -0.69714428      -2.79002677      -0.00147486       0.13966700
14
Properties=species:S:1:pos:R:3:initial_charges:R:1 dipole_vector="1.42868 -0.7165 -0.43799" dipole_moment=3.9779 pbc="F F F"
C        0.03114282       1.44298336      -0.06057453      -0.33828900
N       -0.08323604      -0.00045650      -0.09461967      -0.30933200
C       -1.24674904      -0.65318320       0.20291397       0.25995900
O       -2.28052309      -0.09025154       0.51978356      -0.36063500
C       -1.13594059      -2.10094933       0.10523236      -0.02900700
C       -1.09638147      -3.30377757       0.03882122       0.12795700
C       -1.06105911      -4.75492537      -0.03776058      -0.50426900
H        0.78231876       1.76684436       0.66870250       0.12668400
H        0.30086850       1.84539864      -1.04360140       0.12667800
H       -0.94212139       1.83880217       0.23119681       0.17361900
H        0.71607769      -0.55850924      -0.34519250       0.25164800
H       -2.03615566      -5.18681178       0.21042974       0.16176800
H       -0.79110144      -5.08922940      -1.04537764       0.15657400
H       -0.32281302      -5.16760501       0.65839151       0.15664500
13
Properties=species:S:1:pos:R:3:initial_charges:R:1 dipole_vector="0.19954 0.51133 0.04495" dipole_moment=1.2613 pbc="F F F"
O        0.01381257       0.02477441      -0.26233811      -0.28793500
C       -0.00042386       1.20381845      -0.07277791       0.27583100
C       -1.04769348       2.27351621       0.28746846      -0.19204500
O       -0.00451372       3.27839104       0.25688201      -0.31208100
C        1.00175353       2.31836318      -0.07856210       0.33569900
C        2.40752155       2.35199344       0.44738410      -0.32395300
C        2.14027963       2.58468555      -1.02024451      -0.32395300
H       -1.82292384       2.44572894      -0.46766435       0.13663000
H       -1.50518019       2.16899515       1.27774372       0.13662800
H        2.66440776       3.21311292       1.05446646       0.13899400
H        2.84650757       1.41092032       0.76109809       0.13859500
H        2.39245858       1.80626912      -1.73243641       0.13859500
H        2.21914270       3.60081312      -1.39082769       0.13899500
14
Properties=species:S:1:pos:R:3:initial_charges:R:1 dipole_vector="0.44269 -0.00553 -0.56181" dipole_moment=1.7241 pbc="F F F"
C        0.17488197       1.47405875      -0.12562117      -0.39935500
C       -0.10907022      -0.01208626       0.08722590       0.03232400
O        0.34749747      -0.82861765      -0.99472641      -0.25497300
C        1.57572065      -1.37825248      -0.60707296       0.01678800
O        1.57610800      -1.44558546       0.81907404      -0.23376100
C        0.62552104      -0.58549448       1.28601529       0.39039800
N        0.39546255      -0.30802267       2.49287351      -0.53594400
H        1.24732898       1.66150896      -0.23714342       0.12169400
H       -0.33628981       1.82851095      -1.02422003       0.12948400
H       -0.18387800       2.03912059       0.73860744       0.14766100
H       -1.18461800      -0.17870455       0.19218016       0.12169000
H        1.66811823      -2.38954847      -1.01338470       0.13006900
H        2.42897334      -0.75968723      -0.92789450       0.10568400
H        1.03501167      -0.80487319       3.11428947       0.22824300
11
Properties=species:S:1:pos:R:3:initial_charges:R:1 dipole_vector="0.1308 0.18335 -1.05376" dipole_moment=2.5479 pbc="F F F"
C        0.10184383       1.41990620      -0.05893757      -0.32949900
N        0.07074365      -0.02272220      -0.01217565      -0.08662300
N        0.19290107      -0.79252379      -1.15178111      -0.23387300
C        0.11695108      -1.99372125      -0.70781920       0.10486700
O       -0.04584706      -2.09985242       0.63060990      -0.19859000
C       -0.07936176      -0.78433109       1.11485424       0.49456200
O       -0.21212207      -0.47862744       2.26581045      -0.39660600
H        1.05485012       1.77132107      -0.46394300       0.14973400
H       -0.71531238       1.80254442      -0.67667466       0.14972900
H       -0.01502073       1.77455679       0.96606241       0.17341800
H        0.17000297      -2.89771474      -1.29219522       0.17288000
